test/test_data/0_6bus_start_simple_v33.raw
 0,    100.00, 33, 0, 1, 60.00       / November 05, 2025 09:59:06; Simulator Version 22; BuildDate 2023_1_9
 
 
    1,'Bus 1       ', 138.0000,3,   1,   1,   1,1.00000000,   0.000000, 1.10000, 0.90000, 1.10000, 0.90000
    2,'Bus 2       ', 138.0000,2,   1,   1,   1,1.00000000,   3.234874, 1.10000, 0.90000, 1.10000, 0.90000
    3,'Bus 3       ', 138.0000,1,   1,   1,   1,0.96736193,  -1.446459, 1.10000, 0.90000, 1.10000, 0.90000
    4,'Bus 4       ', 138.0000,1,   1,   1,   1,0.97014385,  -1.425772, 1.10000, 0.90000, 1.10000, 0.90000
    5,'Bus 5       ',  34.5000,1,   1,   1,   1,0.99639708,  -7.177464, 1.10000, 0.90000, 1.10000, 0.90000
    6,'Bus 6       ', 138.0000,1,   1,   1,   1,0.99034685,   1.410006, 1.10000, 0.90000, 1.10000, 0.90000
0 / END OF BUS DATA, BEGIN LOAD DATA
    1,'1 ',1,   1,   1,   100.000,     0.000,     0.000,     0.000,     0.000,     0.000,   1,1, 0
    2,'1 ',1,   1,   1,   200.000,   100.000,     0.000,     0.000,     0.000,     0.000,   1,1, 0
    3,'1 ',1,   1,   1,   100.000,    50.000,     0.000,     0.000,     0.000,     0.000,   1,1, 0
    5,'1 ',1,   1,   1,   100.000,     0.000,     0.000,     0.000,     0.000,     0.000,   1,1, 0
0 / END OF LOAD DATA, BEGIN FIXED SHUNT DATA
0 / END OF FIXED SHUNT DATA, BEGIN GENERATOR DATA
    1,'1 ',   103.056,    39.756, 99998.999,-99998.999,1.00000,    0,   100.000,   0.00000,   1.00000,   0.00000,   0.00000,1.00000,1,  100.0,  1000.000,     0.000,   1,1.0000,   0,1.0000,   0,1.0000,   0,1.0000,0, 1.0000
    2,'1 ',   400.000,   135.113,  9900.000, -9900.000,1.00000,    0,   100.000,   0.00000,   1.00000,   0.00000,   0.00000,1.00000,1,  100.0,  1000.000,     0.000,   1,1.0000,   0,1.0000,   0,1.0000,   0,1.0000,0, 1.0000
0 / END OF GENERATOR DATA, BEGIN BRANCH DATA
     1,     2,'1 ',3.00000E-2,1.60000E-1,3.70000E-2, 150.00,9999.00,9999.00,  0.00000,  0.00000,  0.00000,  0.00000, 1,1,   0.00,   1,1.0000,   0,1.0000,   0,1.0000,   0,1.0000
     1,     3,'1 ',1.50000E-2,8.00000E-2,0.00000E-1, 300.00,9999.00,9999.00,  0.00000,  0.00000,  0.00000,  0.00000, 1,1,   0.00,   1,1.0000,   0,1.0000,   0,1.0000,   0,1.0000
     6,     3,'1 ',1.50000E-2,8.00000E-2,0.00000E-1, 100.00,9999.00,9999.00,  0.00000,  0.00000,  0.00000,  0.00000, 1,1,   0.00,   1,1.0000,   0,1.0000,   0,1.0000,   0,1.0000
0 / END OF BRANCH DATA, BEGIN TRANSFORMER DATA
     2,     4,    0,'1 ',1,1,1,0.00000E-1,0.00000E-1,2,'            ', 1,   1,1.0000,   0,1.0000,   0,1.0000,   0,1.0000,'            '
1.50000E-2,8.00000E-2, 100.00
1.000000,345.000,   0.000, 250.00,9999.00,9999.00, 0,     0,1.500000,0.510000,1.500000,0.510000,159, 0, 0.00000, 0.00000,  0.000
1.000000,138.000
     2,     6,    0,'1 ',1,1,1,0.00000E-1,0.00000E-1,2,'            ', 1,   1,1.0000,   0,1.0000,   0,1.0000,   0,1.0000,'            '
1.00000E-7,5.00000E-2, 100.00
1.000000,138.000,   0.000,9999.00,9999.00,9999.00, 0,     0,30.000000,-30.000000,0.450000,0.400000,9525, 0, 0.00000, 0.00000,  0.000
1.000000,138.000
     4,     3,    0,'1 ',1,1,1,0.00000E-1,0.00000E-1,2,'            ', 1,   1,1.0000,   0,1.0000,   0,1.0000,   0,1.0000,'            '
1.50000E-2,8.00000E-2, 100.00
1.000000,138.000,   0.000, 200.00, 200.00, 200.00, 0,     0,1.500000,0.510000,1.500000,0.510000,159, 0, 0.00000, 0.00000,  0.000
1.000000,345.000
     4,     5,    0,'1 ',1,1,1,0.00000E-1,0.00000E-1,2,'            ', 1,   1,1.0000,   0,1.0000,   0,1.0000,   0,1.0000,'            '
1.00000E-7,1.00000E-1, 100.00
0.968750,138.000,   0.000,1000.00,1000.00,1000.00, 0,     5,1.100000,0.900000,1.000000,0.990000, 33, 0, 0.00000, 0.00000,  0.000
1.000000, 34.500
0 / END OF TRANSFORMER DATA, BEGIN AREA DATA
   1,    0,     0.000,     1.000,'Home        '
0 / END OF AREA DATA, BEGIN TWO-TERMINAL DC DATA
0 / END OF TWO-TERMINAL DC DATA, BEGIN VOLTAGE SOURCE CONVERTER DATA
0 / END OF VOLTAGE SOURCE CONVERTER DATA, BEGIN IMPEDANCE CORRECTION DATA
0 / END OF IMPEDANCE CORRECTION DATA, BEGIN MULTI-TERMINAL DC DATA
0 / END OF MULTI-TERMINAL DC DATA, BEGIN MULTI-SECTION LINE DATA
0 / END OF MULTI-SECTION LINE DATA, BEGIN ZONE DATA
   1,'1           '
0 / END OF ZONE DATA, BEGIN INTER-AREA TRANSFER DATA
0 / END OF INTER-AREA TRANSFER DATA, BEGIN OWNER DATA
    1,'1'
0 / END OF OWNER DATA, BEGIN FACTS CONTROL DEVICE DATA
0 / END OF FACTS CONTROL DEVICE DATA, BEGIN SWITCHED SHUNT DATA
0 /END OF SWITCHED SHUNT DATA, BEGIN GNE DEVICE DATA
0 /END OF GNE DEVICE DATA
0 / END OF INDUCTION MACHINE DATA
Q
